/*--------------------------------*- C++ -*----------------------------------*\
  =========                 |
  \\      /  F ield         | OpenFOAM: The Open Source CFD Toolbox
   \\    /   O peration     | Website:  https://openfoam.org
    \\  /    A nd           | Version:  6
     \\/     M anipulation  |
\*---------------------------------------------------------------------------*/
FoamFile
{
    version     2.0;
    format      ascii;
    class       dictionary;
    object      blockMeshDict;
}
// * * * * * * * * * * * * * * * * * * * * * * * * * * * * * * * * * * * * * //

convertToMeters 0.01;

vertices
(
    (0 0 0)
    (6 0 0)
    (6 0 6)
    (0 0 6)
    (0 2 0)
    (6 2 0)
    (6 2 6)
    (0 2 6)
    (0 4 0)
    (6 4 0)
    (6 4 6)
    (0 4 6)
    (0 6 0)
    (6 6 0)
    (6 6 6)
    (0 6 6)
    (0 8 0)
    (6 8 0)
    (6 8 6)
    (0 8 6)

);

blocks
(
    hex (0 1 5 4 3 2 6 7) (60 32 12) simpleGrading (1 1 1)
    hex (4 5 9 8 7 6 10 11) (60 32 12) simpleGrading (1 1 1)
    hex (8 9 13 12 11 10 14 15) (60 32 12) simpleGrading (1 1 1)
    hex (12 13 17 16 15 14 18 19) (60 32 12) simpleGrading (1 1 1)
);

edges
(
);

boundary
(
    inlet
    {
        type patch;
        faces
        (
            (8 4 7 11) 
        );
    }
    fixedWalls
    {
        type wall;
        faces
        (
            (0 1 2 3)
            (0 3 7 4)
            (4 5 1 0)
            (5 6 2 1)
            (7 3 2 6)
            (8 9 5 4)
            (9 10 6 5)
            (10 11 7 6)
            (12 15 11 8)
            (12 13 9 8)
            (13 14 10 9)
            (14 15 11 10)
            (16 12 15 19)
            (16 17 13 12)
            (18 19 15 14)
            (16 19 18 17)

        );
    }
    outlet
    {
        type patch;
        faces
        (
                        (17 18 14 13)  
        );
    }
);

mergePatchPairs
(
);

// ************************************************************************* //

